ieee_feeders/electricdss-code-r4166-trunk-Distrib-IEEETestCases-123Bus/electricdss-code-r4166-trunk-Distrib-IEEETestCases-123Bus/ieee123_Power_elem_kVA.txt

CIRCUIT ELEMENT POWER FLOW

(Power Flow into element from indicated Bus)

Power Delivery Elements

  Bus Phase     kW     +j   kvar         kVA         PF

ELEMENT = "Vsource.source"
150     1     -1464.4 +j   -581.7     1575.7       0.9294
150     2      -963.8 +j   -343.7     1023.2       0.9419
150     3     -1193.4 +j   -398.5     1258.2       0.9485
   TERMINAL TOTAL -3621.6 +j  -1323.9     3856.0       0.9392
150     0         0.0 +j      0.0        0.0       1.0000
150     0         0.0 +j      0.0        0.0       1.0000
150     0         0.0 +j      0.0        0.0       1.0000
   TERMINAL TOTAL     0.0 +j      0.0        0.0       1.0000

ELEMENT = "Transformer.reg1a"
150      1      1464.4 +j    581.7     1575.7       0.9294
150      2       963.8 +j    343.7     1023.2       0.9419
150      3      1193.4 +j    398.5     1258.2       0.9485
150      0         0.0 +j     -0.0        0.0       1.0000
   TERMINAL TOTAL  3621.6 +j   1323.9     3856.0       0.9392
150R     1     -1464.4 +j   -581.7     1575.7       0.9294
150R     2      -963.8 +j   -343.7     1023.2       0.9419
150R     3     -1193.4 +j   -398.5     1258.2       0.9485
150R     0         0.0 +j      0.0        0.0       1.0000
   TERMINAL TOTAL -3621.6 +j  -1323.9     3856.0       0.9392

ELEMENT = "Line.l115"
149      1      1464.4 +j    581.7     1575.7       0.9294
149      2       963.8 +j    343.7     1023.2       0.9419
149      3      1193.4 +j    398.5     1258.2       0.9485
   TERMINAL TOTAL  3621.6 +j   1323.9     3856.0       0.9392
1        1     -1453.2 +j   -558.6     1556.9       0.9334
1        2      -963.3 +j   -337.7     1020.8       0.9437
1        3     -1185.9 +j   -387.3     1247.5       0.9506
   TERMINAL TOTAL -3602.4 +j  -1283.6     3824.3       0.9420

ELEMENT = "Line.l1"
1        2         0.0 +j      0.0        0.0       0.7023
   TERMINAL TOTAL     0.0 +j      0.0        0.0       0.7023

ELEMENT = "Line.l2"
1        3         0.1 +j      0.1        0.2       0.7023
   TERMINAL TOTAL     0.1 +j      0.1        0.2       0.7023

ELEMENT = "Line.l3"
1        1      1413.2 +j    538.6     1512.4       0.9344
1        2       943.3 +j    327.7      998.6       0.9446
1        3      1082.4 +j    335.4     1133.1       0.9552
   TERMINAL TOTAL  3438.9 +j   1201.7     3642.8       0.9440
7        1     -1404.8 +j   -522.3     1498.8       0.9373
7        2      -943.1 +j   -323.0      996.9       0.9460
7        3     -1077.8 +j   -328.9     1126.9       0.9565
   TERMINAL TOTAL -3425.8 +j  -1174.3     3621.5       0.9460

ELEMENT = "Line.l4"
3        3         0.0 +j      0.0        0.0       0.7023
   TERMINAL TOTAL     0.0 +j      0.0        0.0       0.7023

ELEMENT = "Line.l5"
3        3         0.1 +j      0.1        0.1       0.7023
   TERMINAL TOTAL     0.1 +j      0.1        0.1       0.7023

ELEMENT = "Line.l6"
5        3         0.0 +j      0.0        0.0       0.7023
   TERMINAL TOTAL     0.0 +j      0.0        0.0       0.7023

ELEMENT = "Line.l7"
7        1      1384.8 +j    512.3     1476.6       0.9379
7        2       943.1 +j    323.0      996.9       0.9460
7        3      1077.8 +j    328.9     1126.9       0.9565
   TERMINAL TOTAL  3405.8 +j   1164.3     3599.3       0.9462
8        1     -1379.4 +j   -501.9     1467.9       0.9397
8        2      -943.0 +j   -319.9      995.8       0.9470
8        3     -1074.9 +j   -324.5     1122.8       0.9573
   TERMINAL TOTAL -3397.2 +j  -1146.3     3585.4       0.9475

ELEMENT = "Line.l8"
8        2         0.0 +j      0.0        0.0       0.7023
   TERMINAL TOTAL     0.0 +j      0.0        0.0       0.7023

ELEMENT = "Line.l9"
8        1         0.1 +j      0.1        0.2       0.7023
   TERMINAL TOTAL     0.1 +j      0.1        0.2       0.7023

ELEMENT = "Line.l10"
8        1      1278.5 +j    451.3     1355.8       0.9430
8        2       923.0 +j    309.9      973.6       0.9480
8        3      1074.9 +j    324.5     1122.8       0.9573
   TERMINAL TOTAL  3276.3 +j   1085.7     3451.5       0.9492
13       1     -1271.8 +j   -438.2     1345.2       0.9454
13       2      -922.3 +j   -305.6      971.6       0.9493
13       3     -1070.5 +j   -317.4     1116.6       0.9587
   TERMINAL TOTAL -3264.6 +j  -1061.2     3432.7       0.9510

ELEMENT = "Line.l11"
9R       1         0.1 +j      0.1        0.1       0.7023
   TERMINAL TOTAL     0.1 +j      0.1        0.1       0.7023

ELEMENT = "Line.l12"
13       3         0.1 +j      0.1        0.1       0.7023
   TERMINAL TOTAL     0.1 +j      0.1        0.1       0.7023

ELEMENT = "Line.l13"
13       1       486.9 +j    265.0      554.3       0.8783
13       2       320.6 +j    217.3      387.3       0.8278
13       3       324.3 +j    189.4      375.6       0.8635
   TERMINAL TOTAL  1131.8 +j    671.7     1316.1       0.8600
18       1      -484.4 +j   -259.1      549.4       0.8818
18       2      -320.3 +j   -215.0      385.7       0.8302
18       3      -322.2 +j   -187.7      372.9       0.8641
   TERMINAL TOTAL -1126.9 +j   -661.8     1306.8       0.8623

ELEMENT = "Line.l14"
14       1         0.0 +j      0.0        0.0       0.7023
   TERMINAL TOTAL     0.0 +j      0.0        0.0       0.7023

ELEMENT = "Line.l15"
14       1         0.0 +j      0.0        0.0       0.7023
   TERMINAL TOTAL     0.0 +j      0.0        0.0       0.7023

ELEMENT = "Line.l16"
15       3         0.0 +j      0.0        0.0       0.7023
   TERMINAL TOTAL     0.0 +j      0.0        0.0       0.7023

ELEMENT = "Line.l17"
15       3         0.0 +j      0.0        0.0       0.7023
   TERMINAL TOTAL     0.0 +j      0.0        0.0       0.7023

ELEMENT = "Line.l18"
18       1         0.1 +j      0.1        0.1       0.7023
   TERMINAL TOTAL     0.1 +j      0.1        0.1       0.7023

ELEMENT = "Line.l19"
18       1       119.7 +j     60.4      134.0       0.8929
18       2        42.6 +j     21.3       47.6       0.8944
18       3       120.4 +j     60.4      134.7       0.8940
   TERMINAL TOTAL   282.7 +j    142.0      316.3       0.8936
21       1      -119.6 +j    -60.2      133.9       0.8933
21       2       -42.6 +j    -21.3       47.6       0.8943
21       3      -120.3 +j    -60.2      134.6       0.8942
   TERMINAL TOTAL  -282.6 +j   -141.8      316.1       0.8938

ELEMENT = "Line.l20"
19       1         0.0 +j      0.0        0.0       0.7023
   TERMINAL TOTAL     0.0 +j      0.0        0.0       0.7023

ELEMENT = "Line.l21"
21       2         0.0 +j      0.0        0.1       0.7023
   TERMINAL TOTAL     0.0 +j      0.0        0.1       0.7023

ELEMENT = "Line.l22"
21       1       119.6 +j     60.2      133.9       0.8933
21       2         0.0 +j     -0.0        0.0      -0.0623
21       3       120.3 +j     60.2      134.6       0.8942
   TERMINAL TOTAL   240.0 +j    120.4      268.5       0.8937
23       1      -119.6 +j    -60.1      133.9       0.8937
23       2        -0.0 +j      0.0        0.0      -0.0626
23       3      -120.2 +j    -60.1      134.4       0.8943
   TERMINAL TOTAL  -239.8 +j   -120.2      268.3       0.8940

ELEMENT = "Line.l23"
23       3         0.0 +j      0.0        0.1       0.7023
   TERMINAL TOTAL     0.0 +j      0.0        0.1       0.7023

ELEMENT = "Line.l24"
23       1       119.6 +j     60.1      133.9       0.8937
23       2         0.0 +j     -0.0        0.0      -0.0626
23       3        80.2 +j     40.1       89.6       0.8943
   TERMINAL TOTAL   199.8 +j    100.2      223.5       0.8939
25       1      -119.6 +j    -59.9      133.8       0.8941
25       2        -0.0 +j      0.0        0.0      -0.0627
25       3       -80.1 +j    -40.1       89.5       0.8943
   TERMINAL TOTAL  -199.7 +j   -100.0      223.3       0.8942

ELEMENT = "Line.l25"
25R      1        39.9 +j     20.0       44.6       0.8939
25R      3        40.0 +j     20.0       44.8       0.8943
   TERMINAL TOTAL    79.9 +j     40.0       89.4       0.8941
26       1       -39.9 +j    -20.0       44.6       0.8941
26       3       -40.0 +j    -20.0       44.8       0.8943
   TERMINAL TOTAL   -79.9 +j    -40.0       89.4       0.8942

ELEMENT = "Line.l26"
25       1        79.7 +j     39.9       89.2       0.8942
25       2         0.0 +j     -0.0        0.0      -0.0627
25       3        40.0 +j     20.0       44.8       0.8943
   TERMINAL TOTAL   119.8 +j     59.9      133.9       0.8942
28       1       -79.7 +j    -39.9       89.1       0.8944
28       2        -0.0 +j      0.0        0.0      -0.0627
28       3       -40.0 +j    -20.0       44.8       0.8943
   TERMINAL TOTAL  -119.7 +j    -59.9      133.9       0.8944

ELEMENT = "Line.l27"
26       1        39.9 +j     20.0       44.6       0.8941
26       3        -0.0 +j     -0.0        0.0       0.1551
   TERMINAL TOTAL    39.9 +j     20.0       44.6       0.8941
27       1       -39.9 +j    -20.0       44.6       0.8942
27       3        -0.0 +j     -0.0        0.0       0.5682
   TERMINAL TOTAL   -39.9 +j    -20.0       44.6       0.8942

ELEMENT = "Line.l28"
26       3         0.0 +j      0.0        0.0       0.7023
   TERMINAL TOTAL     0.0 +j      0.0        0.0       0.7023

ELEMENT = "Line.l29"
27       1         0.0 +j      0.0        0.1       0.7023
   TERMINAL TOTAL     0.0 +j      0.0        0.1       0.7023

ELEMENT = "Line.l30"
28       1        39.8 +j     19.9       44.5       0.8943
28       2         0.0 +j     -0.0        0.0      -0.0627
28       3        40.0 +j     20.0       44.8       0.8943
   TERMINAL TOTAL    79.8 +j     39.9       89.3       0.8943
29       1       -39.8 +j    -19.9       44.5       0.8945
29       2        -0.0 +j      0.0        0.0      -0.0628
29       3       -40.0 +j    -20.0       44.7       0.8943
   TERMINAL TOTAL   -79.8 +j    -39.9       89.2       0.8944

ELEMENT = "Line.l31"
29       1         0.0 +j     -0.0        0.0      -0.0696
29       2         0.0 +j     -0.0        0.0      -0.0628
29       3        40.0 +j     20.0       44.7       0.8943
   TERMINAL TOTAL    40.0 +j     20.0       44.7       0.8944
30       1        -0.0 +j      0.0        0.0      -0.0695
30       2        -0.0 +j      0.0        0.0      -0.0630
30       3       -40.0 +j    -20.0       44.7       0.8944
   TERMINAL TOTAL   -40.0 +j    -20.0       44.7       0.8945

ELEMENT = "Line.l32"
30       1         0.0 +j     -0.0        0.0      -0.0695
30       2         0.0 +j     -0.0        0.0      -0.0630
30       3        -0.0 +j     -0.0        0.0       0.1321
   TERMINAL TOTAL     0.0 +j     -0.0        0.0      -0.0000
250      1        -0.0 +j     -0.0        0.0       0.4855
250      2        -0.0 +j     -0.0        0.0       0.5175
250      3        -0.0 +j      0.0        0.0      -0.4816
   TERMINAL TOTAL    -0.0 +j     -0.0        0.0       0.7228

ELEMENT = "Line.l33"
31       3         0.0 +j      0.0        0.0       0.7023
   TERMINAL TOTAL     0.0 +j      0.0        0.0       0.7023

ELEMENT = "Line.l34"
34       3         0.0 +j      0.0        0.0       0.7023
   TERMINAL TOTAL     0.0 +j      0.0        0.0       0.7023

ELEMENT = "Line.l35"
35       1        39.7 +j     19.9       44.4       0.8942
35       2        40.6 +j     20.4       45.4       0.8940
   TERMINAL TOTAL    80.3 +j     40.2       89.8       0.8941
36       1       -39.6 +j    -19.8       44.3       0.8943
36       2       -40.6 +j    -20.3       45.4       0.8943
   TERMINAL TOTAL   -80.3 +j    -40.2       89.7       0.8943

ELEMENT = "Line.l36"
35       1       219.1 +j    140.0      260.0       0.8427
35       2       222.1 +j    150.5      268.3       0.8279
35       3       201.7 +j    127.0      238.3       0.8463
   TERMINAL TOTAL   642.9 +j    417.4      766.5       0.8387
40       1      -218.8 +j   -139.6      259.6       0.8430
40       2      -222.0 +j   -150.1      268.0       0.8284
40       3      -201.6 +j   -126.7      238.1       0.8467
   TERMINAL TOTAL  -642.4 +j   -416.4      765.5       0.8391

ELEMENT = "Line.l37"
36       1         0.0 +j      0.0        0.0       0.7023
   TERMINAL TOTAL     0.0 +j      0.0        0.0       0.7023

ELEMENT = "Line.l38"
36       2         0.0 +j      0.0        0.0       0.7023
   TERMINAL TOTAL     0.0 +j      0.0        0.0       0.7023

ELEMENT = "Line.l39"
38       2         0.0 +j      0.0        0.0       0.7023
   TERMINAL TOTAL     0.0 +j      0.0        0.0       0.7023

ELEMENT = "Line.l40"
40       3         0.0 +j      0.0        0.0       0.7023
   TERMINAL TOTAL     0.0 +j      0.0        0.0       0.7023

ELEMENT = "Line.l41"
40       1       218.8 +j    139.6      259.6       0.8430
40       2       222.0 +j    150.1      268.0       0.8284
40       3       181.6 +j    116.7      215.8       0.8413
   TERMINAL TOTAL   622.4 +j    406.4      743.3       0.8373
42       1      -218.6 +j   -139.2      259.1       0.8434
42       2      -221.9 +j   -149.8      267.7       0.8289
42       3      -181.5 +j   -116.4      215.6       0.8416
   TERMINAL TOTAL  -621.9 +j   -405.4      742.4       0.8377

ELEMENT = "Line.l42"
42       2         0.0 +j      0.0        0.1       0.7023
   TERMINAL TOTAL     0.0 +j      0.0        0.1       0.7023

ELEMENT = "Line.l43"
42       1       198.6 +j    129.2      236.9       0.8381
42       2       179.7 +j    128.6      221.0       0.8131
42       3       181.5 +j    116.4      215.6       0.8416
   TERMINAL TOTAL   559.7 +j    374.3      673.4       0.8312
44       1      -198.4 +j   -129.0      236.7       0.8384
44       2      -179.6 +j   -128.5      220.8       0.8134
44       3      -181.4 +j   -116.3      215.5       0.8419
   TERMINAL TOTAL  -559.4 +j   -373.7      672.8       0.8315

ELEMENT = "Line.l44"
44       1         0.0 +j      0.0        0.0       0.7023
   TERMINAL TOTAL     0.0 +j      0.0        0.0       0.7023

ELEMENT = "Line.l45"
44       1       158.5 +j    109.1      192.4       0.8239
44       2       179.6 +j    128.5      220.8       0.8134
44       3       181.4 +j    116.3      215.5       0.8419
   TERMINAL TOTAL   519.5 +j    353.8      628.6       0.8266
47       1      -158.4 +j   -108.9      192.2       0.8241
47       2      -179.5 +j   -128.2      220.6       0.8137
47       3      -181.3 +j   -116.0      215.2       0.8424
   TERMINAL TOTAL  -519.2 +j   -353.1      627.9       0.8269

ELEMENT = "Line.l46"
45       1         0.0 +j      0.0        0.0       0.7023
   TERMINAL TOTAL     0.0 +j      0.0        0.0       0.7023

ELEMENT = "Line.l47"
47       1        68.7 +j     49.1       84.5       0.8137
47       2        73.6 +j     52.6       90.4       0.8137
47       3        71.0 +j     50.8       87.3       0.8136
   TERMINAL TOTAL   213.3 +j    152.4      262.2       0.8137
48       1       -68.7 +j    -49.1       84.4       0.8137
48       2       -73.6 +j    -52.5       90.4       0.8137
48       3       -71.0 +j    -50.7       87.3       0.8137
   TERMINAL TOTAL  -213.3 +j   -152.3      262.1       0.8137

ELEMENT = "Line.l48"
47       1        55.0 +j     35.0       65.2       0.8436
47       2        70.0 +j     50.0       86.1       0.8137
47       3        75.0 +j     40.0       85.0       0.8822
   TERMINAL TOTAL   200.1 +j    125.1      236.0       0.8479
49       1       -55.0 +j    -35.0       65.2       0.8437
49       2       -70.0 +j    -50.0       86.0       0.8138
49       3       -75.0 +j    -40.0       85.0       0.8823
   TERMINAL TOTAL  -200.0 +j   -125.0      235.9       0.8480

ELEMENT = "Line.l49"
49       1        20.0 +j     10.0       22.4       0.8944
49       2        -0.0 +j     -0.0        0.0       0.3728
49       3        40.0 +j     20.0       44.7       0.8944
   TERMINAL TOTAL    60.0 +j     30.0       67.1       0.8944
50       1       -20.0 +j    -10.0       22.4       0.8945
50       2         0.0 +j      0.0        0.0       0.3727
50       3       -40.0 +j    -20.0       44.7       0.8945
   TERMINAL TOTAL   -60.0 +j    -30.0       67.1       0.8945

ELEMENT = "Line.l50"
50       1        20.0 +j     10.0       22.4       0.8945
50       2        -0.0 +j     -0.0        0.0       0.3727
50       3         0.0 +j     -0.0        0.0      -0.1459
   TERMINAL TOTAL    20.0 +j     10.0       22.4       0.8946
51       1       -20.0 +j    -10.0       22.4       0.8945
51       2         0.0 +j      0.0        0.0       0.3727
51       3        -0.0 +j      0.0        0.0      -0.1460
   TERMINAL TOTAL   -20.0 +j    -10.0       22.4       0.8946

ELEMENT = "Line.l51"
51       1         0.0 +j     -0.0        0.0      -0.3055
51       2        -0.0 +j     -0.0        0.0       0.3727
51       3         0.0 +j     -0.0        0.0      -0.1460
   TERMINAL TOTAL    -0.0 +j     -0.0        0.0       0.0000
151      1         0.0 +j      0.0        0.0       1.0000
151      2         0.0 +j      0.0        0.0       1.0000
151      3         0.0 +j      0.0        0.0       1.0000
   TERMINAL TOTAL     0.0 +j      0.0        0.0       1.0000

ELEMENT = "Line.l52"
52       1       741.4 +j    147.1      755.8       0.9809
52       2       601.3 +j     85.7      607.4       0.9900
52       3       642.8 +j     74.1      647.0       0.9934
   TERMINAL TOTAL  1985.5 +j    306.8     2009.0       0.9883
53       1      -739.8 +j   -144.4      753.8       0.9815
53       2      -601.0 +j    -84.4      606.9       0.9903
53       3      -641.9 +j    -72.5      646.0       0.9937
   TERMINAL TOTAL -1982.8 +j   -301.3     2005.6       0.9887

ELEMENT = "Line.l53"
53       1       699.8 +j    124.4      710.8       0.9846
53       2       601.0 +j     84.4      606.9       0.9903
53       3       641.9 +j     72.5      646.0       0.9937
   TERMINAL TOTAL  1942.8 +j    281.3     1963.1       0.9897
54       1      -699.0 +j   -123.0      709.7       0.9849
54       2      -600.8 +j    -83.5      606.6       0.9905
54       3      -641.4 +j    -71.5      645.4       0.9938
   TERMINAL TOTAL -1941.2 +j   -278.0     1961.0       0.9899

ELEMENT = "Line.l54"
54       1        19.9 +j     10.0       22.3       0.8945
54       2        20.0 +j     10.0       22.4       0.8944
54       3         0.0 +j     -0.0        0.0      -0.0687
   TERMINAL TOTAL    39.9 +j     20.0       44.7       0.8945
55       1       -19.9 +j    -10.0       22.3       0.8945
55       2       -20.0 +j    -10.0       22.4       0.8944
55       3        -0.0 +j      0.0        0.0      -0.0687
   TERMINAL TOTAL   -39.9 +j    -20.0       44.6       0.8945

ELEMENT = "Line.l55"
54       1       679.1 +j    113.0      688.4       0.9864
54       2       580.8 +j     73.5      585.4       0.9921
54       3       641.4 +j     71.5      645.4       0.9938
   TERMINAL TOTAL  1901.3 +j    258.0     1918.7       0.9909
57       1      -677.5 +j   -109.1      686.2       0.9873
57       2      -579.5 +j    -71.3      583.8       0.9925
57       3      -640.1 +j    -68.9      643.7       0.9943
   TERMINAL TOTAL -1897.0 +j   -249.3     1913.4       0.9915

ELEMENT = "Line.l56"
55       1        -0.0 +j     -0.0        0.0       0.1496
55       2        20.0 +j     10.0       22.4       0.8944
55       3         0.0 +j     -0.0        0.0      -0.0687
   TERMINAL TOTAL    20.0 +j     10.0       22.4       0.8945
56       1        -0.0 +j      0.0        0.0      -0.0561
56       2       -20.0 +j    -10.0       22.4       0.8944
56       3         0.0 +j      0.0        0.0       0.9995
   TERMINAL TOTAL   -20.0 +j    -10.0       22.4       0.8944

ELEMENT = "Line.l57"
57       2         0.0 +j      0.0        0.0       0.7023
   TERMINAL TOTAL     0.0 +j      0.0        0.0       0.7023

ELEMENT = "Line.l58"
57       1       677.5 +j    109.1      686.2       0.9873
57       2       538.8 +j     51.0      541.2       0.9956
57       3       640.1 +j     68.9      643.7       0.9943
   TERMINAL TOTAL  1856.4 +j    229.0     1870.5       0.9925
60       1      -674.3 +j   -100.5      681.8       0.9891
60       2      -536.5 +j    -47.1      538.6       0.9962
60       3      -636.8 +j    -63.5      639.9       0.9951
   TERMINAL TOTAL -1847.6 +j   -211.0     1859.6       0.9935

ELEMENT = "Line.l59"
58       2         0.0 +j      0.0        0.0       0.7023
   TERMINAL TOTAL     0.0 +j      0.0        0.0       0.7023

ELEMENT = "Line.l60"
60       1        -0.0 +j     -0.0        0.0       0.0878
60       2         0.0 +j     -0.0        0.0      -0.1399
60       3        -0.0 +j     -0.0        0.0       0.0574
   TERMINAL TOTAL     0.0 +j     -0.0        0.0      -0.0002
61       1        -0.0 +j     -0.0        0.0       0.0305
61       2        -0.0 +j     -0.0        0.0       0.0339
61       3        -0.0 +j     -0.0        0.0       0.0257
   TERMINAL TOTAL    -0.0 +j     -0.0        0.0       0.0301

ELEMENT = "Line.l61"
60       1        85.0 +j     66.1      107.7       0.7897
60       2       113.1 +j     61.5      128.8       0.8785
60       3       175.9 +j     84.1      195.0       0.9023
   TERMINAL TOTAL   374.1 +j    211.7      429.8       0.8704
62       1       -85.0 +j    -66.0      107.6       0.7896
62       2      -113.0 +j    -61.5      128.6       0.8782
62       3      -175.6 +j    -83.9      194.6       0.9023
   TERMINAL TOTAL  -373.5 +j   -211.4      429.2       0.8703

ELEMENT = "Line.l62"
62       1        85.0 +j     66.0      107.6       0.7896
62       2       113.0 +j     61.5      128.6       0.8782
62       3       135.3 +j     63.7      149.5       0.9047
   TERMINAL TOTAL   333.2 +j    191.3      384.2       0.8673
63       1       -84.9 +j    -66.0      107.5       0.7894
63       2      -112.9 +j    -61.5      128.5       0.8781
63       3      -135.2 +j    -63.6      149.4       0.9047
   TERMINAL TOTAL  -332.9 +j   -191.2      383.9       0.8672

ELEMENT = "Line.l63"
63       1        44.9 +j     46.0       64.3       0.6983
63       2       112.9 +j     61.5      128.5       0.8781
63       3       135.2 +j     63.6      149.4       0.9047
   TERMINAL TOTAL   292.9 +j    171.2      339.2       0.8634
64       1       -44.9 +j    -46.0       64.3       0.6978
64       2      -112.6 +j    -61.5      128.3       0.8777
64       3      -134.9 +j    -63.5      149.1       0.9049
   TERMINAL TOTAL  -292.4 +j   -171.0      338.7       0.8632

ELEMENT = "Line.l64"
64       1        44.9 +j     46.0       64.3       0.6978
64       2        35.9 +j     25.7       44.2       0.8134
64       3       134.9 +j     63.5      149.1       0.9049
   TERMINAL TOTAL   215.7 +j    135.2      254.5       0.8473
65       1       -44.8 +j    -46.0       64.3       0.6977
65       2       -35.9 +j    -25.7       44.2       0.8127
65       3      -134.5 +j    -63.3      148.6       0.9048
   TERMINAL TOTAL  -215.2 +j   -135.1      254.1       0.8470

ELEMENT = "Line.l65"
65       1         0.0 +j     -0.0        0.0      -0.0002
65       2        -0.0 +j     -0.0        0.0       0.0002
65       3        75.1 +j     35.0       82.9       0.9063
   TERMINAL TOTAL    75.1 +j     35.0       82.9       0.9065
66       1        -0.0 +j      0.0        0.0      -0.9174
66       2         0.0 +j      0.0        0.0       0.9962
66       3       -75.0 +j    -35.0       82.8       0.9062
   TERMINAL TOTAL   -75.0 +j    -35.0       82.8       0.9062

ELEMENT = "Line.l66"
67       1         0.1 +j      0.1        0.2       0.7023
   TERMINAL TOTAL     0.1 +j      0.1        0.2       0.7023

ELEMENT = "Line.l67"
67       1       264.4 +j   -131.3      295.2      -0.8956
67       2       302.8 +j    -76.0      312.2      -0.9699
67       3       316.7 +j    -93.5      330.2      -0.9591
   TERMINAL TOTAL   883.8 +j   -300.8      933.6      -0.9467
72       1      -264.3 +j    131.8      295.3      -0.8949
72       2      -302.4 +j     76.5      311.9      -0.9695
72       3      -316.4 +j     94.1      330.1      -0.9585
   TERMINAL TOTAL  -883.1 +j    302.4      933.4      -0.9461

ELEMENT = "Line.l68"
67       1       183.6 +j     92.9      205.7       0.8923
67       2       120.2 +j     60.3      134.5       0.8938
67       3       143.2 +j     71.8      160.2       0.8938
   TERMINAL TOTAL   446.9 +j    225.0      500.4       0.8932
97       1      -183.5 +j    -92.6      205.5       0.8928
97       2      -120.1 +j    -60.2      134.4       0.8940
97       3      -143.1 +j    -71.7      160.1       0.8940
   TERMINAL TOTAL  -446.7 +j   -224.6      500.0       0.8935

ELEMENT = "Line.l69"
68       1         0.1 +j      0.1        0.2       0.7023
   TERMINAL TOTAL     0.1 +j      0.1        0.2       0.7023

ELEMENT = "Line.l70"
69       1         0.1 +j      0.1        0.1       0.7023
   TERMINAL TOTAL     0.1 +j      0.1        0.1       0.7023

ELEMENT = "Line.l71"
70       1         0.0 +j      0.0        0.0       0.7023
   TERMINAL TOTAL     0.0 +j      0.0        0.0       0.7023

ELEMENT = "Line.l72"
72       3         0.2 +j      0.2        0.3       0.7023
   TERMINAL TOTAL     0.2 +j      0.2        0.3       0.7023

ELEMENT = "Line.l73"
72       1       264.3 +j   -131.8      295.3      -0.8949
72       2       302.4 +j    -76.5      311.9      -0.9695
72       3       193.5 +j   -155.8      248.4      -0.7790
   TERMINAL TOTAL   760.2 +j   -364.0      842.8      -0.9019
76       1      -264.1 +j    132.1      295.3      -0.8944
76       2      -302.1 +j     76.9      311.8      -0.9691
76       3      -193.5 +j    156.0      248.5      -0.7784
   TERMINAL TOTAL  -759.7 +j    365.0      842.8      -0.9014

ELEMENT = "Line.l74"
73       3         0.1 +j      0.1        0.2       0.7023
   TERMINAL TOTAL     0.1 +j      0.1        0.2       0.7023

ELEMENT = "Line.l75"
74       3         0.0 +j      0.0        0.0       0.7023
   TERMINAL TOTAL     0.0 +j      0.0        0.0       0.7023

ELEMENT = "Line.l76"
76       1        83.6 +j   -174.4      193.4      -0.4323
76       2        80.6 +j   -173.3      191.1      -0.4216
76       3        81.0 +j   -174.6      192.5      -0.4206
   TERMINAL TOTAL   245.1 +j   -522.3      577.0      -0.4249
77       1       -83.5 +j    174.7      193.6      -0.4313
77       2       -80.4 +j    173.6      191.4      -0.4203
77       3       -80.8 +j    174.9      192.7      -0.4194
   TERMINAL TOTAL  -244.7 +j    523.2      577.6      -0.4237

ELEMENT = "Line.l77"
76       1        80.2 +j    -13.4       81.3      -0.9863
76       2       141.5 +j     18.6      142.7       0.9915
76       3        40.0 +j    -33.7       52.3      -0.7649
   TERMINAL TOTAL   261.6 +j    -28.5      263.2      -0.9941
86       1       -80.1 +j     13.4       81.2      -0.9862
86       2      -141.3 +j    -18.2      142.4       0.9918
86       3       -40.0 +j     33.7       52.3      -0.7646
   TERMINAL TOTAL  -261.4 +j     29.0      263.0      -0.9939

ELEMENT = "Line.l78"
77       1        83.5 +j   -174.7      193.6      -0.4313
77       2        40.4 +j   -193.6      197.8      -0.2044
77       3        80.8 +j   -174.9      192.7      -0.4194
   TERMINAL TOTAL   204.7 +j   -543.2      580.5      -0.3527
78       1       -83.5 +j    174.7      193.6      -0.4310
78       2       -40.4 +j    193.7      197.9      -0.2041
78       3       -80.8 +j    174.9      192.7      -0.4191
   TERMINAL TOTAL  -204.6 +j    543.4      580.6      -0.3524

ELEMENT = "Line.l79"
78       1        43.1 +j     21.6       48.2       0.8943
78       2        -0.0 +j     -0.0        0.0       0.0622
78       3        -0.0 +j     -0.0        0.0       0.0749
   TERMINAL TOTAL    43.1 +j     21.6       48.2       0.8944
79       1       -43.1 +j    -21.5       48.2       0.8944
79       2        -0.0 +j     -0.0        0.0       0.5366
79       3        -0.0 +j     -0.0        0.0       0.9999
   TERMINAL TOTAL   -43.1 +j    -21.5       48.2       0.8944

ELEMENT = "Line.l80"
78       1        40.4 +j   -196.3      200.4      -0.2014
78       2        40.4 +j   -193.7      197.9      -0.2041
78       3        80.8 +j   -174.9      192.7      -0.4191
   TERMINAL TOTAL   161.5 +j   -565.0      587.6      -0.2749
80       1       -40.2 +j    196.7      200.8      -0.2004
80       2       -40.3 +j    194.1      198.2      -0.2031
80       3       -80.5 +j    175.2      192.8      -0.4174
   TERMINAL TOTAL  -161.0 +j    566.0      588.5      -0.2736

ELEMENT = "Line.l81"
80       1        40.2 +j   -196.7      200.8      -0.2004
80       2         0.3 +j   -214.1      214.1      -0.0012
80       3        80.5 +j   -175.2      192.8      -0.4174
   TERMINAL TOTAL   121.0 +j   -586.0      598.4      -0.2022
81       1       -40.2 +j    196.9      201.0      -0.1999
81       2        -0.2 +j    214.2      214.2      -0.0010
81       3       -80.4 +j    175.3      192.9      -0.4168
   TERMINAL TOTAL  -120.8 +j    586.5      598.8      -0.2017

ELEMENT = "Line.l82"
81       1        40.2 +j   -196.9      201.0      -0.1999
81       2         0.2 +j   -214.2      214.2      -0.0010
81       3        20.2 +j   -205.5      206.5      -0.0980
   TERMINAL TOTAL    60.6 +j   -616.6      619.6      -0.0978
82       1       -40.1 +j    197.1      201.1      -0.1993
82       2        -0.1 +j    214.5      214.5      -0.0005
82       3       -20.1 +j    205.6      206.6      -0.0974
   TERMINAL TOTAL   -60.3 +j    617.2      620.2      -0.0973

ELEMENT = "Line.l83"
81       3         0.1 +j      0.1        0.2       0.7023
   TERMINAL TOTAL     0.1 +j      0.1        0.2       0.7023

ELEMENT = "Line.l84"
82       1         0.1 +j   -217.1      217.1      -0.0004
82       2         0.1 +j   -214.5      214.5      -0.0005
82       3        20.1 +j   -205.6      206.6      -0.0974
   TERMINAL TOTAL    20.3 +j   -637.2      637.6      -0.0319
83       1        -0.0 +j    217.3      217.3      -0.0000
83       2         0.0 +j    214.7      214.7       0.0000
83       3       -20.0 +j    205.8      206.8      -0.0967
   TERMINAL TOTAL   -20.0 +j    637.9      638.2      -0.0313

ELEMENT = "Line.l85"
84       3         0.0 +j      0.0        0.1       0.7023
   TERMINAL TOTAL     0.0 +j      0.0        0.1       0.7023

ELEMENT = "Line.l86"
86       1        80.1 +j    -13.4       81.2      -0.9862
86       2       121.3 +j      8.2      121.5       0.9977
86       3        40.0 +j    -33.7       52.3      -0.7646
   TERMINAL TOTAL   241.4 +j    -39.0      244.5      -0.9872
87       1       -80.1 +j     13.5       81.2      -0.9862
87       2      -121.2 +j     -8.0      121.4       0.9978
87       3       -40.0 +j     33.8       52.4      -0.7644
   TERMINAL TOTAL  -241.3 +j     39.2      244.5      -0.9870

ELEMENT = "Line.l87"
87       1         0.0 +j      0.0        0.0       0.7023
   TERMINAL TOTAL     0.0 +j      0.0        0.0       0.7023

ELEMENT = "Line.l88"
87       1        40.1 +j     20.0       44.8       0.8944
87       2        81.2 +j    -12.0       82.1      -0.9892
87       3        40.0 +j    -33.8       52.4      -0.7644
   TERMINAL TOTAL   161.3 +j    -25.7      163.3      -0.9875
89       1       -40.0 +j    -20.0       44.8       0.8944
89       2       -81.2 +j     12.1       82.0      -0.9891
89       3       -40.0 +j     33.8       52.4      -0.7643
   TERMINAL TOTAL  -161.2 +j     25.8      163.3      -0.9874

ELEMENT = "Line.l89"
89       2         0.0 +j      0.0        0.0       0.7023
   TERMINAL TOTAL     0.0 +j      0.0        0.0       0.7023

ELEMENT = "Line.l90"
89       1        40.0 +j     20.0       44.8       0.8944
89       2        40.0 +j     20.0       44.8       0.8941
89       3        40.0 +j    -33.8       52.4      -0.7643
   TERMINAL TOTAL   120.1 +j      6.3      120.3       0.9986
91       1       -40.0 +j    -20.0       44.8       0.8943
91       2       -40.0 +j    -20.0       44.7       0.8942
91       3       -40.0 +j     33.8       52.4      -0.7642
   TERMINAL TOTAL  -120.1 +j     -6.3      120.2       0.9986

ELEMENT = "Line.l91"
91       3         0.0 +j      0.0        0.0       0.7023
   TERMINAL TOTAL     0.0 +j      0.0        0.0       0.7023

ELEMENT = "Line.l92"
91       1        40.0 +j     20.0       44.8       0.8943
91       2        40.0 +j     20.0       44.7       0.8942
91       3        -0.0 +j     -0.0        0.0       0.0745
   TERMINAL TOTAL    80.0 +j     40.1       89.5       0.8943
93       1       -40.0 +j    -20.0       44.8       0.8944
93       2       -40.0 +j    -20.0       44.7       0.8943
93       3         0.0 +j      0.0        0.0       0.0744
   TERMINAL TOTAL   -80.0 +j    -40.0       89.5       0.8943

ELEMENT = "Line.l93"
93       1         0.0 +j      0.0        0.0       0.7023
   TERMINAL TOTAL     0.0 +j      0.0        0.0       0.7023

ELEMENT = "Line.l94"
93       1         0.0 +j     -0.0        0.0      -0.1369
93       2        40.0 +j     20.0       44.7       0.8943
93       3        -0.0 +j     -0.0        0.0       0.0744
   TERMINAL TOTAL    40.0 +j     20.0       44.7       0.8943
95       1        -0.0 +j      0.0        0.0      -0.0966
95       2       -40.0 +j    -20.0       44.7       0.8944
95       3         0.0 +j      0.0        0.0       0.8878
   TERMINAL TOTAL   -40.0 +j    -20.0       44.7       0.8944

ELEMENT = "Line.l95"
95       2         0.0 +j      0.0        0.0       0.7023
   TERMINAL TOTAL     0.0 +j      0.0        0.0       0.7023

ELEMENT = "Line.l96"
97       1        40.0 +j     20.0       44.7       0.8945
97       2        40.0 +j     20.0       44.8       0.8944
97       3        42.8 +j     21.4       47.8       0.8940
   TERMINAL TOTAL   122.8 +j     61.4      137.3       0.8943
98       1       -40.0 +j    -20.0       44.7       0.8945
98       2       -40.0 +j    -20.0       44.7       0.8945
98       3       -42.8 +j    -21.4       47.8       0.8941
   TERMINAL TOTAL  -122.8 +j    -61.4      137.3       0.8944

ELEMENT = "Line.l97"
98       1         0.0 +j     -0.0        0.0      -0.0600
98       2        40.0 +j     20.0       44.7       0.8945
98       3        42.8 +j     21.4       47.8       0.8941
   TERMINAL TOTAL    82.8 +j     41.4       92.6       0.8943
99       1        -0.0 +j      0.0        0.0      -0.0602
99       2       -40.0 +j    -20.0       44.7       0.8945
99       3       -42.8 +j    -21.4       47.8       0.8944
   TERMINAL TOTAL   -82.8 +j    -41.4       92.5       0.8945

ELEMENT = "Line.l98"
99       1         0.0 +j     -0.0        0.0      -0.0602
99       2        -0.0 +j     -0.0        0.0       0.1388
99       3        42.8 +j     21.4       47.8       0.8944
   TERMINAL TOTAL    42.8 +j     21.4       47.8       0.8945
100      1        -0.0 +j      0.0        0.0      -0.0602
100      2         0.0 +j      0.0        0.0       0.1385
100      3       -42.7 +j    -21.4       47.8       0.8945
   TERMINAL TOTAL   -42.7 +j    -21.4       47.8       0.8946

ELEMENT = "Line.l99"
100      1         0.0 +j     -0.0        0.0      -0.0602
100      2        -0.0 +j     -0.0        0.0       0.1385
100      3         0.0 +j     -0.0        0.0      -0.0771
   TERMINAL TOTAL     0.0 +j     -0.0        0.0      -0.0000
450      1        -0.0 +j     -0.0        0.0       0.6083
450      2         0.0 +j      0.0        0.0       0.5326
450      3        -0.0 +j     -0.0        0.0       0.8865
   TERMINAL TOTAL    -0.0 +j     -0.0        0.0       0.8242

ELEMENT = "Line.l118"
197      1       143.5 +j     72.6      160.8       0.8923
197      2        80.1 +j     40.2       89.6       0.8938
197      3       100.3 +j     50.3      112.2       0.8939
   TERMINAL TOTAL   323.9 +j    163.1      362.7       0.8932
101      1      -143.4 +j    -72.4      160.7       0.8926
101      2       -80.1 +j    -40.2       89.6       0.8939
101      3      -100.3 +j    -50.3      112.2       0.8940
   TERMINAL TOTAL  -323.8 +j   -162.9      362.5       0.8933

ELEMENT = "Line.l100"
101      3         0.1 +j      0.1        0.2       0.7023
   TERMINAL TOTAL     0.1 +j      0.1        0.2       0.7023

ELEMENT = "Line.l101"
101      1       143.4 +j     72.4      160.7       0.8926
101      2        80.1 +j     40.2       89.6       0.8939
101      3         0.0 +j     -0.0        0.0      -0.0775
   TERMINAL TOTAL   223.5 +j    112.6      250.3       0.8931
105      1      -143.3 +j    -72.3      160.5       0.8929
105      2       -80.1 +j    -40.1       89.6       0.8942
105      3        -0.0 +j      0.0        0.0      -0.0780
   TERMINAL TOTAL  -223.4 +j   -112.4      250.1       0.8934

ELEMENT = "Line.l102"
102      3         0.1 +j      0.1        0.2       0.7023
   TERMINAL TOTAL     0.1 +j      0.1        0.2       0.7023

ELEMENT = "Line.l103"
103      3         0.1 +j      0.1        0.1       0.7023
   TERMINAL TOTAL     0.1 +j      0.1        0.1       0.7023

ELEMENT = "Line.l104"
105      2         0.1 +j      0.1        0.1       0.7023
   TERMINAL TOTAL     0.1 +j      0.1        0.1       0.7023

ELEMENT = "Line.l105"
105      1       143.3 +j     72.3      160.5       0.8929
105      2        -0.0 +j     -0.0        0.0       0.1391
105      3         0.0 +j     -0.0        0.0      -0.0780
   TERMINAL TOTAL   143.3 +j     72.2      160.5       0.8930
108      1      -143.2 +j    -72.0      160.3       0.8934
108      2         0.0 +j      0.0        0.0       0.1393
108      3        -0.0 +j      0.0        0.0      -0.0787
   TERMINAL TOTAL  -143.2 +j    -72.0      160.2       0.8935

ELEMENT = "Line.l106"
106      2         0.0 +j      0.0        0.1       0.7023
   TERMINAL TOTAL     0.0 +j      0.0        0.1       0.7023

ELEMENT = "Line.l107"
108      1         0.5 +j      0.5        0.7       0.7023
   TERMINAL TOTAL     0.5 +j      0.5        0.7       0.7023

ELEMENT = "Line.l108"
108      1         0.0 +j     -0.0        0.0      -0.0598
108      2        -0.0 +j     -0.0        0.0       0.1393
108      3         0.0 +j     -0.0        0.0      -0.0787
   TERMINAL TOTAL     0.0 +j     -0.0        0.0      -0.0000
300      1        -0.0 +j      0.0        0.0      -0.8617
300      2        -0.0 +j      0.0        0.0      -0.3564
300      3        -0.0 +j     -0.0        0.0       0.8855
   TERMINAL TOTAL    -0.0 +j      0.0        0.0      -0.8788

ELEMENT = "Line.l109"
109      1         0.2 +j      0.2        0.2       0.7023
   TERMINAL TOTAL     0.2 +j      0.2        0.2       0.7023

ELEMENT = "Line.l110"
110      1         0.0 +j      0.0        0.0       0.7023
   TERMINAL TOTAL     0.0 +j      0.0        0.0       0.7023

ELEMENT = "Line.l111"
110      1         0.0 +j      0.0        0.1       0.7023
   TERMINAL TOTAL     0.0 +j      0.0        0.1       0.7023

ELEMENT = "Line.l112"
112      1         0.1 +j      0.1        0.1       0.7023
   TERMINAL TOTAL     0.1 +j      0.1        0.1       0.7023

ELEMENT = "Line.l113"
113      1         0.0 +j      0.0        0.0       0.7023
   TERMINAL TOTAL     0.0 +j      0.0        0.0       0.7023

ELEMENT = "Line.l114"
135      1       284.8 +j    158.7      326.0       0.8735
135      2       277.7 +j    193.7      338.6       0.8201
135      3       201.8 +j    127.3      238.6       0.8457
   TERMINAL TOTAL   764.2 +j    479.7      902.3       0.8470
35       1      -284.2 +j   -157.8      325.1       0.8743
35       2      -277.3 +j   -192.8      337.7       0.8210
35       3      -201.7 +j   -127.0      238.3       0.8463
   TERMINAL TOTAL  -763.1 +j   -477.6      900.3       0.8477

ELEMENT = "Line.l116"
152      1       784.9 +j    173.2      803.8       0.9765
152      2       601.7 +j     88.3      608.1       0.9894
152      3       644.5 +j     77.1      649.1       0.9929
   TERMINAL TOTAL  2031.1 +j    338.6     2059.1       0.9864
52       1      -781.4 +j   -167.1      799.1       0.9779
52       2      -601.3 +j    -85.7      607.4       0.9900
52       3      -642.8 +j    -74.1      647.0       0.9934
   TERMINAL TOTAL -2025.5 +j   -326.8     2051.7       0.9872

ELEMENT = "Line.l117"
160R     1       569.3 +j     24.4      569.8       0.9991
160R     2       423.4 +j    -14.4      423.7      -0.9994
160R     3       460.8 +j    -20.6      461.3      -0.9990
   TERMINAL TOTAL  1453.5 +j    -10.6     1453.6      -1.0000
67       1      -568.4 +j    -21.9      568.8       0.9993
67       2      -423.0 +j     15.7      423.3      -0.9993
67       3      -459.8 +j     21.7      460.3      -0.9989
   TERMINAL TOTAL -1451.2 +j     15.4     1451.2      -0.9999

ELEMENT = "Line.sw1"
150R     1      1464.4 +j    581.7     1575.7       0.9294
150R     2       963.8 +j    343.7     1023.2       0.9419
150R     3      1193.4 +j    398.5     1258.2       0.9485
   TERMINAL TOTAL  3621.6 +j   1323.9     3856.0       0.9392
149      1     -1464.4 +j   -581.7     1575.7       0.9294
149      2      -963.8 +j   -343.7     1023.2       0.9419
149      3     -1193.4 +j   -398.5     1258.2       0.9485
   TERMINAL TOTAL -3621.6 +j  -1323.9     3856.0       0.9392

ELEMENT = "Line.sw2"
13       1       784.9 +j    173.2      803.8       0.9765
13       2       601.7 +j     88.3      608.1       0.9894
13       3       644.5 +j     77.1      649.1       0.9929
   TERMINAL TOTAL  2031.1 +j    338.6     2059.1       0.9864
152      1      -784.9 +j   -173.2      803.8       0.9765
152      2      -601.7 +j    -88.3      608.1       0.9894
152      3      -644.5 +j    -77.1      649.1       0.9929
   TERMINAL TOTAL -2031.1 +j   -338.6     2059.1       0.9864

ELEMENT = "Line.sw3"
18       1       284.8 +j    158.7      326.0       0.8735
18       2       277.7 +j    193.7      338.6       0.8201
18       3       201.8 +j    127.3      238.6       0.8457
   TERMINAL TOTAL   764.2 +j    479.7      902.3       0.8470
135      1      -284.8 +j   -158.7      326.0       0.8735
135      2      -277.7 +j   -193.7      338.6       0.8201
135      3      -201.8 +j   -127.3      238.6       0.8457
   TERMINAL TOTAL  -764.2 +j   -479.7      902.3       0.8470

ELEMENT = "Line.sw4"
60       1       569.3 +j     24.4      569.8       0.9991
60       2       423.4 +j    -14.4      423.7      -0.9994
60       3       460.8 +j    -20.6      461.3      -0.9990
   TERMINAL TOTAL  1453.5 +j    -10.6     1453.6      -1.0000
160      1      -569.3 +j    -24.4      569.8       0.9991
160      2      -423.4 +j     14.4      423.7      -0.9994
160      3      -460.8 +j     20.6      461.3      -0.9990
   TERMINAL TOTAL -1453.5 +j     10.6     1453.6      -1.0000

ELEMENT = "Line.sw5"
97       1       143.5 +j     72.6      160.8       0.8923
97       2        80.1 +j     40.2       89.6       0.8938
97       3       100.3 +j     50.3      112.2       0.8939
   TERMINAL TOTAL   323.9 +j    163.1      362.7       0.8932
197      1      -143.5 +j    -72.6      160.8       0.8923
197      2       -80.1 +j    -40.2       89.6       0.8938
197      3      -100.3 +j    -50.3      112.2       0.8939
   TERMINAL TOTAL  -323.9 +j   -163.1      362.7       0.8932

ELEMENT = "Line.sw6"
61       1        -0.0 +j      0.0        0.0      -0.0429
61       2         0.0 +j      0.0        0.0       0.0264
61       3         0.0 +j      0.0        0.0       0.0157
   TERMINAL TOTAL     0.0 +j      0.0        0.0       0.0005
61S      1         0.0 +j     -0.0        0.0      -0.0429
61S      2        -0.0 +j     -0.0        0.0       0.0264
61S      3        -0.0 +j     -0.0        0.0       0.0157
   TERMINAL TOTAL    -0.0 +j     -0.0        0.0       0.0005

ELEMENT = "Line.sw7"
151      1         0.0 +j     -0.0        0.0       1.0000
151      2        -0.0 +j      0.0        0.0       1.0000
151      3         0.0 +j      0.0        0.0       1.0000
   TERMINAL TOTAL     0.0 +j      0.0        0.0       1.0000
300_OPEN     1         0.0 +j     -0.0        0.0       1.0000
300_OPEN     2        -0.0 +j      0.0        0.0       1.0000
300_OPEN     3         0.0 +j      0.0        0.0       1.0000
   TERMINAL TOTAL     0.0 +j      0.0        0.0       1.0000

ELEMENT = "Line.sw8"
54       1         0.0 +j      0.0        0.0       1.0000
   TERMINAL TOTAL     0.0 +j      0.0        0.0       1.0000

ELEMENT = "Transformer.xfm1"
61S      1         0.0 +j      0.0        0.0       0.0070
61S      2         0.0 +j      0.0        0.0       0.0000
61S      3        -0.0 +j      0.0        0.0      -0.0068
61S      0         0.0 +j      0.0        0.0       1.0000
   TERMINAL TOTAL    -0.0 +j      0.0        0.0      -0.0000
610      1        -0.0 +j      0.0        0.0      -0.4051
610      2         0.0 +j     -0.0        0.0      -0.8483
610      3         0.0 +j      0.0        0.0       0.8910
610      0         0.0 +j      0.0        0.0       1.0000
   TERMINAL TOTAL     0.0 +j      0.0        0.0       0.7924

ELEMENT = "Capacitor.c83"
83       1        -0.0 +j   -217.3      217.3       0.0000
83       2         0.0 +j   -214.7      214.7       1.0000
83       3         0.0 +j   -215.8      215.8       1.0000
   TERMINAL TOTAL    -0.0 +j   -647.9      647.9       0.0000
83       0        -0.0 +j      0.0        0.0       1.0000
83       0         0.0 +j     -0.0        0.0       1.0000
83       0         0.0 +j      0.0        0.0       1.0000
   TERMINAL TOTAL     0.0 +j      0.0        0.0       1.0000

ELEMENT = "Capacitor.c88a"
88       1         0.0 +j    -53.5       53.5       1.0000
   TERMINAL TOTAL     0.0 +j    -53.5       53.5       1.0000

ELEMENT = "Capacitor.c90b"
90       2         0.0 +j    -52.7       52.7       1.0000
   TERMINAL TOTAL     0.0 +j    -52.7       52.7       1.0000

ELEMENT = "Capacitor.c92c"
92       3         0.0 +j    -53.8       53.8      -0.0000
   TERMINAL TOTAL     0.0 +j    -53.8       53.8      -0.0000

ELEMENT = "Transformer.reg2a"
9        1        60.8 +j     30.4       68.0       0.8941
9        0         0.0 +j     -0.0        0.0       1.0000
   TERMINAL TOTAL    60.8 +j     30.4       68.0       0.8941
9R       1       -60.8 +j    -30.4       68.0       0.8941
9R       0         0.0 +j      0.0        0.0       1.0000
   TERMINAL TOTAL   -60.8 +j    -30.4       68.0       0.8941

ELEMENT = "Transformer.reg3a"
25       1        39.9 +j     20.0       44.6       0.8939
25       0         0.0 +j     -0.0        0.0       1.0000
   TERMINAL TOTAL    39.9 +j     20.0       44.6       0.8939
25R      1       -39.9 +j    -20.0       44.6       0.8939
25R      0         0.0 +j      0.0        0.0       1.0000
   TERMINAL TOTAL   -39.9 +j    -20.0       44.6       0.8939

ELEMENT = "Transformer.reg4a"
160      1       569.3 +j     24.4      569.8       0.9991
160      0         0.0 +j     -0.0        0.0       1.0000
   TERMINAL TOTAL   569.3 +j     24.4      569.8       0.9991
160R     1      -569.3 +j    -24.4      569.8       0.9991
160R     0         0.0 +j      0.0        0.0       1.0000
   TERMINAL TOTAL  -569.3 +j    -24.4      569.8       0.9991

ELEMENT = "Transformer.reg3c"
25       3        40.0 +j     20.0       44.8       0.8943
25       0         0.0 +j      0.0        0.0       1.0000
   TERMINAL TOTAL    40.0 +j     20.0       44.8       0.8943
25R      3       -40.0 +j    -20.0       44.8       0.8943
25R      0         0.0 +j     -0.0        0.0       1.0000
   TERMINAL TOTAL   -40.0 +j    -20.0       44.8       0.8943

ELEMENT = "Transformer.reg4b"
160      2       423.4 +j    -14.4      423.7      -0.9994
160      0         0.0 +j      0.0        0.0       1.0000
   TERMINAL TOTAL   423.4 +j    -14.4      423.7      -0.9994
160R     2      -423.4 +j     14.4      423.7      -0.9994
160R     0        -0.0 +j      0.0        0.0       1.0000
   TERMINAL TOTAL  -423.4 +j     14.4      423.7      -0.9994

ELEMENT = "Transformer.reg4c"
160      3       460.8 +j    -20.6      461.3      -0.9990
160      0         0.0 +j      0.0        0.0       1.0000
   TERMINAL TOTAL   460.8 +j    -20.6      461.3      -0.9990
160R     3      -460.8 +j     20.6      461.3      -0.9990
160R     0         0.0 +j     -0.0        0.0       1.0000
   TERMINAL TOTAL  -460.8 +j     20.6      461.3      -0.9990

= = = = = = = = = = = = = = = = = = =  = = = = = = = = = = =  = =

Power Conversion Elements

  Bus Phase     kW   +j  kvar         kVA         PF

ELEMENT = "Load.s1a"
1        1      40.0 +j   20.0       44.7       0.8944
1        0       0.0 +j   -0.0        0.0       1.0000
  TERMINAL TOTAL     40.0 +j     20.0       44.7       0.8944

ELEMENT = "Load.s2b"
2        2      20.0 +j   10.0       22.4       0.8944
2        0       0.0 +j    0.0        0.0       1.0000
  TERMINAL TOTAL     20.0 +j     10.0       22.4       0.8944

ELEMENT = "Load.s4c"
4        3      40.0 +j   20.0       44.7       0.8944
4        0       0.0 +j    0.0        0.0       1.0000
  TERMINAL TOTAL     40.0 +j     20.0       44.7       0.8944

ELEMENT = "Load.s5c"
5        3      20.7 +j   10.3       23.1       0.8944
5        0       0.0 +j    0.0        0.0       1.0000
  TERMINAL TOTAL     20.7 +j     10.3       23.1       0.8944

ELEMENT = "Load.s6c"
6        3      42.6 +j   21.3       47.6       0.8944
6        0       0.0 +j    0.0        0.0       1.0000
  TERMINAL TOTAL     42.6 +j     21.3       47.6       0.8944

ELEMENT = "Load.s7a"
7        1      20.0 +j   10.0       22.4       0.8944
7        0       0.0 +j   -0.0        0.0       1.0000
  TERMINAL TOTAL     20.0 +j     10.0       22.4       0.8944

ELEMENT = "Load.s9a"
9        1      40.0 +j   20.0       44.7       0.8944
9        0       0.0 +j   -0.0        0.0       1.0000
  TERMINAL TOTAL     40.0 +j     20.0       44.7       0.8944

ELEMENT = "Load.s10a"
10       1      20.1 +j   10.1       22.5       0.8944
10       0       0.0 +j   -0.0        0.0       1.0000
  TERMINAL TOTAL     20.1 +j     10.1       22.5       0.8944

ELEMENT = "Load.s11a"
11       1      40.5 +j   20.3       45.3       0.8944
11       0       0.0 +j   -0.0        0.0       1.0000
  TERMINAL TOTAL     40.5 +j     20.3       45.3       0.8944

ELEMENT = "Load.s12b"
12       2      20.0 +j   10.0       22.4       0.8944
12       0       0.0 +j    0.0        0.0       1.0000
  TERMINAL TOTAL     20.0 +j     10.0       22.4       0.8944

ELEMENT = "Load.s16c"
16       3      40.0 +j   20.0       44.7       0.8944
16       0       0.0 +j    0.0        0.0       1.0000
  TERMINAL TOTAL     40.0 +j     20.0       44.7       0.8944

ELEMENT = "Load.s17c"
17       3      20.0 +j   10.0       22.4       0.8944
17       0       0.0 +j    0.0        0.0       1.0000
  TERMINAL TOTAL     20.0 +j     10.0       22.4       0.8944

ELEMENT = "Load.s19a"
19       1      40.0 +j   20.0       44.7       0.8944
19       0       0.0 +j   -0.0        0.0       1.0000
  TERMINAL TOTAL     40.0 +j     20.0       44.7       0.8944

ELEMENT = "Load.s20a"
20       1      39.9 +j   20.0       44.6       0.8944
20       0       0.0 +j   -0.0        0.0       1.0000
  TERMINAL TOTAL     39.9 +j     20.0       44.6       0.8944

ELEMENT = "Load.s22b"
22       2      42.5 +j   21.3       47.6       0.8944
22       0       0.0 +j    0.0        0.0       1.0000
  TERMINAL TOTAL     42.5 +j     21.3       47.6       0.8944

ELEMENT = "Load.s24c"
24       3      40.0 +j   20.0       44.7       0.8944
24       0       0.0 +j    0.0        0.0       1.0000
  TERMINAL TOTAL     40.0 +j     20.0       44.7       0.8944

ELEMENT = "Load.s28a"
28       1      39.9 +j   20.0       44.6       0.8944
28       0       0.0 +j   -0.0        0.0       1.0000
  TERMINAL TOTAL     39.9 +j     20.0       44.6       0.8944

ELEMENT = "Load.s29a"
29       1      39.8 +j   19.9       44.5       0.8944
29       0       0.0 +j   -0.0        0.0       1.0000
  TERMINAL TOTAL     39.8 +j     19.9       44.5       0.8944

ELEMENT = "Load.s30c"
30       3      40.0 +j   20.0       44.7       0.8944
30       0       0.0 +j    0.0        0.0       1.0000
  TERMINAL TOTAL     40.0 +j     20.0       44.7       0.8944

ELEMENT = "Load.s31c"
31       3      20.0 +j   10.0       22.4       0.8944
31       0       0.0 +j    0.0        0.0       1.0000
  TERMINAL TOTAL     20.0 +j     10.0       22.4       0.8944

ELEMENT = "Load.s32c"
32       3      20.0 +j   10.0       22.4       0.8944
32       0       0.0 +j    0.0        0.0       1.0000
  TERMINAL TOTAL     20.0 +j     10.0       22.4       0.8944

ELEMENT = "Load.s33a"
33       1      39.8 +j   19.9       44.5       0.8944
33       0       0.0 +j   -0.0        0.0       1.0000
  TERMINAL TOTAL     39.8 +j     19.9       44.5       0.8944

ELEMENT = "Load.s34c"
34       3      41.6 +j   20.8       46.5       0.8944
34       0       0.0 +j    0.0        0.0       1.0000
  TERMINAL TOTAL     41.6 +j     20.8       46.5       0.8944

ELEMENT = "Load.s35a"
35       1      25.5 +j   -2.0       25.5      -0.9969
35       2      14.5 +j   22.0       26.4       0.5513
  TERMINAL TOTAL     40.0 +j     20.0       44.7       0.8944

ELEMENT = "Load.s37a"
37       1      39.6 +j   19.8       44.3       0.8944
37       0       0.0 +j   -0.0        0.0       1.0000
  TERMINAL TOTAL     39.6 +j     19.8       44.3       0.8944

ELEMENT = "Load.s38b"
38       2      20.6 +j   10.3       23.0       0.8944
38       0       0.0 +j    0.0        0.0       1.0000
  TERMINAL TOTAL     20.6 +j     10.3       23.0       0.8944

ELEMENT = "Load.s39b"
39       2      20.0 +j   10.0       22.4       0.8944
39       0       0.0 +j    0.0        0.0       1.0000
  TERMINAL TOTAL     20.0 +j     10.0       22.4       0.8944

ELEMENT = "Load.s41c"
41       3      20.0 +j   10.0       22.4       0.8944
41       0       0.0 +j    0.0        0.0       1.0000
  TERMINAL TOTAL     20.0 +j     10.0       22.4       0.8944

ELEMENT = "Load.s42a"
42       1      20.0 +j   10.0       22.4       0.8944
42       0       0.0 +j   -0.0        0.0       1.0000
  TERMINAL TOTAL     20.0 +j     10.0       22.4       0.8944

ELEMENT = "Load.s43b"
43       2      42.2 +j   21.1       47.1       0.8944
43       0       0.0 +j    0.0        0.0       1.0000
  TERMINAL TOTAL     42.2 +j     21.1       47.1       0.8944

ELEMENT = "Load.s45a"
45       1      19.8 +j    9.9       22.2       0.8944
45       0       0.0 +j   -0.0        0.0       1.0000
  TERMINAL TOTAL     19.8 +j      9.9       22.2       0.8944

ELEMENT = "Load.s46a"
46       1      20.0 +j   10.0       22.4       0.8944
46       0       0.0 +j   -0.0        0.0       1.0000
  TERMINAL TOTAL     20.0 +j     10.0       22.4       0.8944

ELEMENT = "Load.s47"
47       1      34.7 +j   24.8       42.6       0.8137
47       2      35.9 +j   25.6       44.1       0.8137
47       3      35.3 +j   25.2       43.3       0.8137
47       0       0.0 +j    0.0        0.0       1.0000
  TERMINAL TOTAL    105.8 +j     75.6      130.1       0.8137

ELEMENT = "Load.s48"
48       1      68.7 +j   49.1       84.4       0.8137
48       2      73.6 +j   52.5       90.4       0.8137
48       3      71.0 +j   50.7       87.3       0.8137
48       0       0.0 +j    0.0        0.0       1.0000
  TERMINAL TOTAL    213.3 +j    152.3      262.1       0.8137

ELEMENT = "Load.s49a"
49       1      35.0 +j   25.0       43.0       0.8137
49       0       0.0 +j   -0.0        0.0       1.0000
  TERMINAL TOTAL     35.0 +j     25.0       43.0       0.8137

ELEMENT = "Load.s49b"
49       2      70.0 +j   50.0       86.0       0.8137
49       0       0.0 +j    0.0        0.0       1.0000
  TERMINAL TOTAL     70.0 +j     50.0       86.0       0.8137

ELEMENT = "Load.s49c"
49       3      35.0 +j   20.0       40.3       0.8682
49       0      -0.0 +j    0.0        0.0       1.0000
  TERMINAL TOTAL     35.0 +j     20.0       40.3       0.8682

ELEMENT = "Load.s50c"
50       3      40.0 +j   20.0       44.7       0.8944
50       0       0.0 +j    0.0        0.0       1.0000
  TERMINAL TOTAL     40.0 +j     20.0       44.7       0.8944

ELEMENT = "Load.s51a"
51       1      20.0 +j   10.0       22.4       0.8944
51       0       0.0 +j   -0.0        0.0       1.0000
  TERMINAL TOTAL     20.0 +j     10.0       22.4       0.8944

ELEMENT = "Load.s52a"
52       1      40.0 +j   20.0       44.7       0.8944
52       0       0.0 +j   -0.0        0.0       1.0000
  TERMINAL TOTAL     40.0 +j     20.0       44.7       0.8944

ELEMENT = "Load.s53a"
53       1      40.0 +j   20.0       44.7       0.8944
53       0       0.0 +j   -0.0        0.0       1.0000
  TERMINAL TOTAL     40.0 +j     20.0       44.7       0.8944

ELEMENT = "Load.s55a"
55       1      19.9 +j   10.0       22.3       0.8944
55       0       0.0 +j   -0.0        0.0       1.0000
  TERMINAL TOTAL     19.9 +j     10.0       22.3       0.8944

ELEMENT = "Load.s56b"
56       2      20.0 +j   10.0       22.4       0.8944
56       0       0.0 +j    0.0        0.0       1.0000
  TERMINAL TOTAL     20.0 +j     10.0       22.4       0.8944

ELEMENT = "Load.s58b"
58       2      20.6 +j   10.3       23.0       0.8944
58       0       0.0 +j    0.0        0.0       1.0000
  TERMINAL TOTAL     20.6 +j     10.3       23.0       0.8944

ELEMENT = "Load.s59b"
59       2      20.0 +j   10.0       22.4       0.8944
59       0       0.0 +j    0.0        0.0       1.0000
  TERMINAL TOTAL     20.0 +j     10.0       22.4       0.8944

ELEMENT = "Load.s60a"
60       1      20.0 +j   10.0       22.4       0.8944
60       0       0.0 +j   -0.0        0.0       1.0000
  TERMINAL TOTAL     20.0 +j     10.0       22.4       0.8944

ELEMENT = "Load.s62c"
62       3      40.3 +j   20.2       45.1       0.8944
62       0       0.0 +j    0.0        0.0       1.0000
  TERMINAL TOTAL     40.3 +j     20.2       45.1       0.8944

ELEMENT = "Load.s63a"
63       1      40.0 +j   20.0       44.7       0.8944
63       0       0.0 +j   -0.0        0.0       1.0000
  TERMINAL TOTAL     40.0 +j     20.0       44.7       0.8944

ELEMENT = "Load.s64b"
64       2      76.7 +j   35.8       84.6       0.9062
64       0       0.0 +j    0.0        0.0       1.0000
  TERMINAL TOTAL     76.7 +j     35.8       84.6       0.9062

ELEMENT = "Load.s65a"
65       1      24.3 +j    1.8       24.4       0.9974
65       2      10.4 +j   23.0       25.3       0.4112
  TERMINAL TOTAL     34.7 +j     24.8       42.6       0.8137

ELEMENT = "Load.s65b"
65       2      25.5 +j    2.7       25.7       0.9943
65       3      10.3 +j   22.8       25.0       0.4110
  TERMINAL TOTAL     35.8 +j     25.6       44.0       0.8137

ELEMENT = "Load.s65c"
65       3      49.1 +j    5.4       49.4       0.9939
65       1      20.5 +j   44.3       48.8       0.4205
  TERMINAL TOTAL     69.6 +j     49.7       85.6       0.8137

ELEMENT = "Load.s66c"
66       3      75.0 +j   35.0       82.8       0.9062
66       0       0.0 +j    0.0        0.0       1.0000
  TERMINAL TOTAL     75.0 +j     35.0       82.8       0.9062

ELEMENT = "Load.s68a"
68       1      20.0 +j   10.0       22.4       0.8944
68       0       0.0 +j   -0.0        0.0       1.0000
  TERMINAL TOTAL     20.0 +j     10.0       22.4       0.8944

ELEMENT = "Load.s69a"
69       1      40.0 +j   20.0       44.7       0.8944
69       0       0.0 +j   -0.0        0.0       1.0000
  TERMINAL TOTAL     40.0 +j     20.0       44.7       0.8944

ELEMENT = "Load.s70a"
70       1      20.0 +j   10.0       22.4       0.8944
70       0       0.0 +j   -0.0        0.0       1.0000
  TERMINAL TOTAL     20.0 +j     10.0       22.4       0.8944

ELEMENT = "Load.s71a"
71       1      40.0 +j   20.0       44.7       0.8944
71       0       0.0 +j   -0.0        0.0       1.0000
  TERMINAL TOTAL     40.0 +j     20.0       44.7       0.8944

ELEMENT = "Load.s73c"
73       3      40.0 +j   20.0       44.7       0.8944
73       0       0.0 +j    0.0        0.0       1.0000
  TERMINAL TOTAL     40.0 +j     20.0       44.7       0.8944

ELEMENT = "Load.s74c"
74       3      42.5 +j   21.3       47.6       0.8944
74       0       0.0 +j    0.0        0.0       1.0000
  TERMINAL TOTAL     42.5 +j     21.3       47.6       0.8944

ELEMENT = "Load.s75c"
75       3      40.0 +j   20.0       44.7       0.8944
75       0       0.0 +j    0.0        0.0       1.0000
  TERMINAL TOTAL     40.0 +j     20.0       44.7       0.8944

ELEMENT = "Load.s76a"
...